Circuit: * C:\Users\ryans\Documents\Projects\Simple Electronics\RC Timer.asc

Direct Newton iteration for .op point succeeded.

Date: Sat Mar 13 12:39:28 2021
Total elapsed time: 0.062 seconds.

tnom = 27
temp = 27
method = modified trap
totiter = 2569
traniter = 2566
tranpoints = 1279
accept = 1238
rejected = 41
matrix size = 8
fillins = 0
solver = Normal
Matrix Compiler1: 174 bytes object code size  0.1/0.0/[0.0]
Matrix Compiler2: off  [0.1]/0.1/0.1

